[Format]      =  4.0
[Frequency]   =  0
[Precision]   =  1e-008
[MinAngle]    =  30
[DoSmartMesh] =  1
[Depth]       =  110
[LengthUnits] =  millimeters
[ProblemType] =  planar
[Coordinates] =  cartesian
[ACSolver]    =  0
[PrevType]    =  0
[PrevSoln]    =  ""
[Comment]     =  "Add comments here."
[PointProps]   = 0
[BdryProps]   = 1
  <BeginBdry>
    <BdryName> = "A0"
    <BdryType> = 0
    <A_0> = 0
    <A_1> = 0
    <A_2> = 0
    <Phi> = 0
    <c0> = 0
    <c0i> = 0
    <c1> = 0
    <c1i> = 0
    <Mu_ssd> = 0
    <Sigma_ssd> = 0
    <innerangle> = 0
    <outerangle> = 0
  <EndBdry>
[BlockProps]  = 4
  <BeginBlock>
    <BlockName> = "AirCustom"
    <Mu_x> = 1
    <Mu_y> = 1
    <H_c> = 0
    <H_cAngle> = 0
    <J_re> = 0
    <J_im> = 0
    <Sigma> = 0
    <d_lam> = 0
    <Phi_h> = 0
    <Phi_hx> = 0
    <Phi_hy> = 0
    <LamType> = 0
    <LamFill> = 1
    <NStrands> = 0
    <WireD> = 0
    <BHPoints> = 0
  <EndBlock>
  <BeginBlock>
    <BlockName> = "StatorSteel"
    <Mu_x> = 4000
    <Mu_y> = 4000
    <H_c> = 0
    <H_cAngle> = 0
    <J_re> = 0
    <J_im> = 0
    <Sigma> = 0
    <d_lam> = 0
    <Phi_h> = 0
    <Phi_hx> = 0
    <Phi_hy> = 0
    <LamType> = 0
    <LamFill> = 1
    <NStrands> = 0
    <WireD> = 0
    <BHPoints> = 0
  <EndBlock>
  <BeginBlock>
    <BlockName> = "RotorSteel"
    <Mu_x> = 4000
    <Mu_y> = 4000
    <H_c> = 0
    <H_cAngle> = 0
    <J_re> = 0
    <J_im> = 0
    <Sigma> = 0
    <d_lam> = 0
    <Phi_h> = 0
    <Phi_hx> = 0
    <Phi_hy> = 0
    <LamType> = 0
    <LamFill> = 1
    <NStrands> = 0
    <WireD> = 0
    <BHPoints> = 0
  <EndBlock>
  <BeginBlock>
    <BlockName> = "CoilExc"
    <Mu_x> = 1
    <Mu_y> = 1
    <H_c> = 0
    <H_cAngle> = 0
    <J_re> = 0.15173552200000001
    <J_im> = 0
    <Sigma> = 0
    <d_lam> = 0
    <Phi_h> = 0
    <Phi_hx> = 0
    <Phi_hy> = 0
    <LamType> = 0
    <LamFill> = 1
    <NStrands> = 0
    <WireD> = 0
    <BHPoints> = 0
  <EndBlock>
[CircuitProps]  = 0
[NumPoints] = 156
110.64	0	0	0
-110.64	0	0	0
69.150000000000006	0	0	0
-69.150000000000006	0	0	0
53.850000000000001	0	0	0
-53.850000000000001	0	0	0
41.25	0	0	0
-41.25	0	0	0
36.25	0	0	0
-36.25	0	0	0
18.649999999999999	0	0	0
-18.649999999999999	0	0	0
41.210739140251633	-1.79929972882011	0	0
53.798746732183041	-2.3489040096233436	0	0
41.210739140251633	1.79929972882011	0	0
53.798746732183041	2.3489040096233436	0	0
40.897100531669679	5.3842054290771273	0	0
53.38930578497969	7.028835451049777	0	0
40.272210293697249	8.9281340749467439	0	0
52.573539983408416	11.65527321056684	0	0
39.340824218364361	12.404114229551267	0	0
51.357657797792022	16.193007303305109	0	0
38.110030716090577	15.785691585059954	0	0
49.75091282573279	20.607502832860085	0	0
36.589196868601647	19.047130295945145	0	0
47.76553336664724	24.865162822706573	0	0
34.789897139781537	22.163608844306481	0	0
45.416629357023901	28.933583909476461	0	0
32.72582528701345	25.111408946609728	0	0
42.722077374683018	32.781802952119605	0	0
30.412690143417617	27.868096064145981	0	0
39.702384587225183	36.3805326801033	0	0
27.868096064145984	30.412690143417613	0	0
36.380532680103308	39.702384587225175	0	0
25.111408946609732	32.725825287013443	0	0
32.781802952119612	42.72207737468301	0	0
22.163608844306484	34.78989713978153	0	0
28.933583909476468	45.416629357023893	0	0
19.047130295945156	36.58919686860164	0	0
24.865162822706587	47.765533366647233	0	0
15.785691585059956	38.110030716090577	0	0
20.607502832860089	49.75091282573279	0	0
12.404114229551274	39.340824218364354	0	0
16.193007303305116	51.357657797792015	0	0
8.9281340749467439	40.272210293697249	0	0
11.655273210566842	52.573539983408416	0	0
5.3842054290771335	40.897100531669679	0	0
7.028835451049785	53.38930578497969	0	0
1.7992997288201102	41.210739140251633	0	0
2.348904009623344	53.798746732183041	0	0
-1.7992997288201054	41.210739140251633	0	0
-2.3489040096233378	53.798746732183041	0	0
-5.3842054290771193	40.897100531669686	0	0
-7.0288354510497673	53.389305784979697	0	0
-8.9281340749467315	40.272210293697256	0	0
-11.655273210566824	52.573539983408416	0	0
-12.404114229551251	39.340824218364368	0	0
-16.193007303305087	51.357657797792029	0	0
-15.785691585059933	38.110030716090584	0	0
-20.607502832860057	49.750912825732804	0	0
-19.047130295945141	36.589196868601647	0	0
-24.865162822706569	47.765533366647247	0	0
-22.16360884430647	34.789897139781537	0	0
-28.93358390947645	45.416629357023901	0	0
-25.111408946609728	32.72582528701345	0	0
-32.781802952119605	42.722077374683018	0	0
-27.868096064145984	30.412690143417617	0	0
-36.380532680103308	39.702384587225183	0	0
-30.412690143417613	27.868096064145991	0	0
-39.702384587225175	36.380532680103308	0	0
-32.725825287013443	25.111408946609735	0	0
-42.72207737468301	32.781802952119619	0	0
-34.78989713978153	22.163608844306495	0	0
-45.416629357023886	28.933583909476479	0	0
-36.58919686860164	19.047130295945166	0	0
-47.765533366647226	24.865162822706601	0	0
-38.110030716090577	15.785691585059958	0	0
-49.75091282573279	20.607502832860092	0	0
-39.340824218364354	12.404114229551276	0	0
-51.357657797792015	16.193007303305119	0	0
-40.272210293697249	8.9281340749467386	0	0
-52.573539983408416	11.655273210566833	0	0
-40.897100531669679	5.3842054290771273	0	0
-53.38930578497969	7.028835451049777	0	0
-41.210739140251633	1.7992997288201129	0	0
-53.798746732183041	2.3489040096233476	0	0
-41.210739140251633	-1.7992997288201029	0	0
-53.798746732183041	-2.3489040096233342	0	0
-40.897100531669686	-5.3842054290771175	0	0
-53.389305784979697	-7.0288354510497637	0	0
-40.272210293697256	-8.9281340749467279	0	0
-52.573539983408416	-11.65527321056682	0	0
-39.340824218364368	-12.404114229551247	0	0
-51.357657797792029	-16.193007303305084	0	0
-38.110030716090584	-15.785691585059931	0	0
-49.750912825732804	-20.607502832860057	0	0
-36.589196868601647	-19.047130295945141	0	0
-47.765533366647247	-24.865162822706566	0	0
-34.789897139781537	-22.16360884430647	0	0
-45.416629357023901	-28.93358390947645	0	0
-32.725825287013471	-25.111408946609696	0	0
-42.722077374683046	-32.78180295211957	0	0
-30.412690143417645	-27.868096064145952	0	0
-39.702384587225218	-36.380532680103265	0	0
-27.868096064145991	-30.41269014341761	0	0
-36.380532680103308	-39.702384587225168	0	0
-25.111408946609735	-32.725825287013443	0	0
-32.781802952119619	-42.722077374683003	0	0
-22.163608844306498	-34.78989713978153	0	0
-28.933583909476486	-45.416629357023886	0	0
-19.047130295945166	-36.58919686860164	0	0
-24.865162822706601	-47.765533366647226	0	0
-15.785691585059942	-38.110030716090584	0	0
-20.607502832860071	-49.750912825732797	0	0
-12.40411422955126	-39.340824218364361	0	0
-16.193007303305098	-51.357657797792022	0	0
-8.9281340749467422	-40.272210293697249	0	0
-11.655273210566838	-52.573539983408416	0	0
-5.38420542907713	-40.897100531669679	0	0
-7.0288354510497806	-53.38930578497969	0	0
-1.799299728820152	-41.210739140251633	0	0
-2.3489040096233986	-53.798746732183041	0	0
1.7992997288200636	-41.210739140251633	0	0
2.3489040096232832	-53.798746732183041	0	0
5.3842054290771149	-40.897100531669686	0	0
7.028835451049761	-53.389305784979697	0	0
8.9281340749467262	-40.272210293697256	0	0
11.655273210566818	-52.573539983408416	0	0
12.404114229551245	-39.340824218364368	0	0
16.19300730330508	-51.357657797792029	0	0
15.785691585059928	-38.110030716090584	0	0
20.607502832860053	-49.750912825732804	0	0
19.04713029594512	-36.589196868601661	0	0
24.865162822706541	-47.765533366647261	0	0
22.163608844306452	-34.789897139781552	0	0
28.933583909476425	-45.416629357023922	0	0
25.111408946609696	-32.725825287013471	0	0
32.78180295211957	-42.722077374683046	0	0
27.868096064145952	-30.412690143417645	0	0
36.380532680103265	-39.702384587225218	0	0
30.41269014341761	-27.868096064145995	0	0
39.702384587225168	-36.380532680103315	0	0
32.725825287013443	-25.111408946609735	0	0
42.722077374683003	-32.781802952119619	0	0
34.78989713978153	-22.163608844306498	0	0
45.416629357023886	-28.933583909476486	0	0
36.589196868601633	-19.047130295945173	0	0
47.765533366647226	-24.865162822706608	0	0
38.110030716090584	-15.785691585059944	0	0
49.750912825732797	-20.607502832860074	0	0
39.340824218364361	-12.404114229551261	0	0
51.357657797792022	-16.193007303305102	0	0
40.272210293697242	-8.9281340749467795	0	0
52.573539983408402	-11.655273210566886	0	0
40.897100531669672	-5.384205429077169	0	0
53.389305784979683	-7.0288354510498312	0	0
[NumSegments] = 72
12	13	-1	0	0	0
14	15	-1	0	0	0
16	17	-1	0	0	0
18	19	-1	0	0	0
20	21	-1	0	0	0
22	23	-1	0	0	0
24	25	-1	0	0	0
26	27	-1	0	0	0
28	29	-1	0	0	0
30	31	-1	0	0	0
32	33	-1	0	0	0
34	35	-1	0	0	0
36	37	-1	0	0	0
38	39	-1	0	0	0
40	41	-1	0	0	0
42	43	-1	0	0	0
44	45	-1	0	0	0
46	47	-1	0	0	0
48	49	-1	0	0	0
50	51	-1	0	0	0
52	53	-1	0	0	0
54	55	-1	0	0	0
56	57	-1	0	0	0
58	59	-1	0	0	0
60	61	-1	0	0	0
62	63	-1	0	0	0
64	65	-1	0	0	0
66	67	-1	0	0	0
68	69	-1	0	0	0
70	71	-1	0	0	0
72	73	-1	0	0	0
74	75	-1	0	0	0
76	77	-1	0	0	0
78	79	-1	0	0	0
80	81	-1	0	0	0
82	83	-1	0	0	0
84	85	-1	0	0	0
86	87	-1	0	0	0
88	89	-1	0	0	0
90	91	-1	0	0	0
92	93	-1	0	0	0
94	95	-1	0	0	0
96	97	-1	0	0	0
98	99	-1	0	0	0
100	101	-1	0	0	0
102	103	-1	0	0	0
104	105	-1	0	0	0
106	107	-1	0	0	0
108	109	-1	0	0	0
110	111	-1	0	0	0
112	113	-1	0	0	0
114	115	-1	0	0	0
116	117	-1	0	0	0
118	119	-1	0	0	0
120	121	-1	0	0	0
122	123	-1	0	0	0
124	125	-1	0	0	0
126	127	-1	0	0	0
128	129	-1	0	0	0
130	131	-1	0	0	0
132	133	-1	0	0	0
134	135	-1	0	0	0
136	137	-1	0	0	0
138	139	-1	0	0	0
140	141	-1	0	0	0
142	143	-1	0	0	0
144	145	-1	0	0	0
146	147	-1	0	0	0
148	149	-1	0	0	0
150	151	-1	0	0	0
152	153	-1	0	0	0
154	155	-1	0	0	0
[NumArcSegments] = 156
0	1	180	1	0	0	0	1
1	0	180	1	0	0	0	1
2	3	180	1	0	0	0	1
3	2	180	1	0	0	0	1
4	15	2.5	1	0	0	0	1
5	87	2.4999999999999893	1	0	0	0	1
6	14	2.5	1	0	0	0	1
7	86	2.4999999999999902	1	0	0	0	1
8	9	180	1	0	0	0	1
9	8	180	1	0	0	0	1
10	11	180	1	0	0	0	1
11	10	180	1	0	0	0	1
12	6	2.5000000000000009	1	0	0	0	1
13	4	2.5000000000000004	1	0	0	0	1
14	16	5	1	0	0	0	1
15	17	5	1	0	0	0	1
16	18	5	1	0	0	0	1
17	19	5	1	0	0	0	1
18	20	4.9999999999999964	1	0	0	0	1
19	21	5.0000000000000018	1	0	0	0	1
20	22	4.9999999999999964	1	0	0	0	1
21	23	5.0000000000000027	1	0	0	0	1
22	24	4.9999999999999867	1	0	0	0	1
23	25	4.9999999999999947	1	0	0	0	1
24	26	4.9999999999999947	1	0	0	0	1
25	27	5.0000000000000018	1	0	0	0	1
26	28	4.9999999999999964	1	0	0	0	1
27	29	5.0000000000000053	1	0	0	0	1
28	30	4.9999999999999867	1	0	0	0	1
29	31	5.0000000000000027	1	0	0	0	1
30	32	4.9999999999999867	1	0	0	0	1
31	33	5.0000000000000027	1	0	0	0	1
32	34	4.9999999999999716	1	0	0	0	1
33	35	4.9999999999999991	1	0	0	0	1
34	36	4.9999999999999964	1	0	0	0	1
35	37	5.0000000000000053	1	0	0	0	1
36	38	4.9999999999999805	1	0	0	0	1
37	39	4.9999999999999991	1	0	0	0	1
38	40	4.9999999999999964	1	0	0	0	1
39	41	5.0000000000000115	1	0	0	0	1
40	42	4.9999999999999778	1	0	0	0	1
41	43	5.0000000000000027	1	0	0	0	1
42	44	4.9999999999999982	1	0	0	0	1
43	45	5.000000000000016	1	0	0	0	1
44	46	4.9999999999999769	1	0	0	0	1
45	47	5	1	0	0	0	1
46	48	4.9999999999999902	1	0	0	0	1
47	49	5.0000000000000142	1	0	0	0	1
48	50	4.9999999999999769	1	0	0	0	1
49	51	5.0000000000000018	1	0	0	0	1
50	52	4.9999999999999742	1	0	0	0	1
51	53	5	1	0	0	0	1
52	54	4.999999999999976	1	0	0	0	1
53	55	5.0000000000000009	1	0	0	0	1
54	56	4.9999999999999734	1	0	0	0	1
55	57	5	1	0	0	0	1
56	58	4.9999999999999778	1	0	0	0	1
57	59	4.9999999999999982	1	0	0	0	1
58	60	4.9999999999999964	1	0	0	0	1
59	61	5.0000000000000275	1	0	0	0	1
60	62	4.9999999999999742	1	0	0	0	1
61	63	4.9999999999999991	1	0	0	0	1
62	64	5.0000000000000062	1	0	0	0	1
63	65	5.0000000000000098	1	0	0	0	1
64	66	4.9999999999999805	1	0	0	0	1
65	67	5.0000000000000044	1	0	0	0	1
66	68	4.9999999999999716	1	0	0	0	1
67	69	5.0000000000000018	1	0	0	0	1
68	70	4.9999999999999725	1	0	0	0	1
69	71	5.0000000000000036	1	0	0	0	1
70	72	4.9999999999999787	1	0	0	0	1
71	73	4.9999999999999991	1	0	0	0	1
72	74	4.999999999999968	1	0	0	0	1
73	75	4.9999999999999982	1	0	0	0	1
74	76	4.9999999999999947	1	0	0	0	1
75	77	5.0000000000000338	1	0	0	0	1
76	78	4.9999999999999725	1	0	0	0	1
77	79	5.0000000000000044	1	0	0	0	1
78	80	5.0000000000000009	1	0	0	0	1
79	81	5.0000000000000302	1	0	0	0	1
80	82	4.9999999999999742	1	0	0	0	1
81	83	5.0000000000000027	1	0	0	0	1
82	84	4.999999999999976	1	0	0	0	1
83	85	5.0000000000000036	1	0	0	0	1
84	7	2.4999999999999951	1	0	0	0	1
85	5	2.5000000000000089	1	0	0	0	1
86	88	4.9999999999999938	1	0	0	0	1
87	89	4.9999999999999947	1	0	0	0	1
88	90	4.9999999999999947	1	0	0	0	1
89	91	4.9999999999999929	1	0	0	0	1
90	92	4.999999999999992	1	0	0	0	1
91	93	4.999999999999992	1	0	0	0	1
92	94	4.9999999999999982	1	0	0	0	1
93	95	4.9999999999999938	1	0	0	0	1
94	96	5.0000000000000142	1	0	0	0	1
95	97	5.000000000000016	1	0	0	0	1
96	98	4.9999999999999947	1	0	0	0	1
97	99	4.9999999999999947	1	0	0	0	1
98	100	4.9999999999999645	1	0	0	0	1
99	101	4.9999999999999494	1	0	0	0	1
100	102	4.9999999999999885	1	0	0	0	1
101	103	4.9999999999999867	1	0	0	0	1
102	104	5.0000000000000488	1	0	0	0	1
103	105	5.0000000000000426	1	0	0	0	1
104	106	4.9999999999999973	1	0	0	0	1
105	107	4.999999999999984	1	0	0	0	1
106	108	4.9999999999999902	1	0	0	0	1
107	109	4.999999999999984	1	0	0	0	1
108	110	4.9999999999999947	1	0	0	0	1
109	111	4.9999999999999885	1	0	0	0	1
110	112	5.0000000000000364	1	0	0	0	1
111	113	5.0000000000000346	1	0	0	0	1
112	114	4.9999999999999867	1	0	0	0	1
113	115	4.9999999999999849	1	0	0	0	1
114	116	4.9999999999999902	1	0	0	0	1
115	117	4.9999999999999805	1	0	0	0	1
116	118	4.9999999999999911	1	0	0	0	1
117	119	4.9999999999999849	1	0	0	0	1
118	120	4.9999999999999405	1	0	0	0	1
119	121	4.9999999999999352	1	0	0	0	1
120	122	4.9999999999999885	1	0	0	0	1
121	123	4.9999999999999831	1	0	0	0	1
122	124	5.0000000000000382	1	0	0	0	1
123	125	5.0000000000000311	1	0	0	0	1
124	126	4.9999999999999867	1	0	0	0	1
125	127	4.9999999999999822	1	0	0	0	1
126	128	4.9999999999999902	1	0	0	0	1
127	129	4.9999999999999778	1	0	0	0	1
128	130	4.9999999999999885	1	0	0	0	1
129	131	4.9999999999999787	1	0	0	0	1
130	132	4.999999999999984	1	0	0	0	1
131	133	4.9999999999999778	1	0	0	0	1
132	134	4.9999999999999867	1	0	0	0	1
133	135	4.9999999999999805	1	0	0	0	1
134	136	4.999999999999992	1	0	0	0	1
135	137	4.9999999999999787	1	0	0	0	1
136	138	4.9999999999999805	1	0	0	0	1
137	139	4.999999999999984	1	0	0	0	1
138	140	5.0000000000000338	1	0	0	0	1
139	141	5.0000000000000275	1	0	0	0	1
140	142	4.9999999999999938	1	0	0	0	1
141	143	4.9999999999999867	1	0	0	0	1
142	144	4.999999999999984	1	0	0	0	1
143	145	4.9999999999999822	1	0	0	0	1
144	146	4.9999999999999725	1	0	0	0	1
145	147	4.999999999999976	1	0	0	0	1
146	148	5.0000000000000409	1	0	0	0	1
147	149	5.0000000000000302	1	0	0	0	1
148	150	4.9999999999999787	1	0	0	0	1
149	151	4.9999999999999751	1	0	0	0	1
150	152	4.9999999999999325	1	0	0	0	1
151	153	4.9999999999999245	1	0	0	0	1
152	154	4.9999999999999805	1	0	0	0	1
153	155	4.9999999999999734	1	0	0	0	1
154	12	5.0000000000000462	1	0	0	0	1
155	13	5.0000000000000391	1	0	0	0	1
[NumHoles] = 0
[NumBlockLabels] = 77
47.549999999999997	0	4	-1	0	0	30	1	0
47.369057894262497	4.1442555676511459	2	-1	0	0	130	1	0
46.827608655730486	8.2569708480625366	4	-1	0	0	31	1	0
45.929773040045198	12.30684559462486	2	-1	0	0	131	1	0
44.682384118369946	16.263057815135546	4	-1	0	0	32	1	0
43.094935273592704	20.095498345770256	2	-1	0	0	132	1	0
41.179507949950057	23.774999999999995	4	-1	0	0	33	1	0
38.95067970594156	27.273559548492237	2	-1	0	0	133	1	0
36.425413270307402	30.56455084059494	4	-1	0	0	34	1	0
33.622927445420338	33.622927445420331	2	-1	0	0	134	1	0
30.564550840594951	36.425413270307395	4	-1	0	0	35	1	0
27.273559548492244	38.950679705941553	2	-1	0	0	135	1	0
23.775000000000002	41.17950794995005	4	-1	0	0	36	1	0
20.095498345770267	43.094935273592696	2	-1	0	0	136	1	0
16.26305781513555	44.682384118369939	4	-1	0	0	37	1	0
12.306845594624871	45.929773040045191	2	-1	0	0	137	1	0
8.2569708480625401	46.827608655730486	4	-1	0	0	38	1	0
4.1442555676511548	47.369057894262497	2	-1	0	0	138	1	0
2.9115977649728322e-015	47.549999999999997	4	-1	0	0	39	1	0
-4.1442555676511379	47.369057894262497	2	-1	0	0	139	1	0
-8.2569708480625241	46.827608655730494	4	-1	0	0	40	1	0
-12.306845594624845	45.929773040045198	2	-1	0	0	140	1	0
-16.263057815135525	44.682384118369946	4	-1	0	0	41	1	0
-20.095498345770235	43.094935273592711	2	-1	0	0	141	1	0
-23.774999999999988	41.179507949950057	4	-1	0	0	42	1	0
-27.273559548492226	38.950679705941567	2	-1	0	0	142	1	0
-30.564550840594944	36.425413270307402	4	-1	0	0	43	1	0
-33.622927445420331	33.622927445420338	2	-1	0	0	143	1	0
-36.425413270307395	30.564550840594951	4	-1	0	0	44	1	0
-38.950679705941546	27.273559548492255	2	-1	0	0	144	1	0
-41.17950794995005	23.775000000000013	4	-1	0	0	45	1	0
-43.094935273592689	20.095498345770277	2	-1	0	0	145	1	0
-44.682384118369939	16.263057815135554	4	-1	0	0	46	1	0
-45.929773040045191	12.306845594624873	2	-1	0	0	146	1	0
-46.827608655730486	8.2569708480625348	4	-1	0	0	47	1	0
-47.369057894262497	4.1442555676511468	2	-1	0	0	147	1	0
-47.549999999999997	5.8231955299456645e-015	4	-1	0	0	48	1	0
-47.369057894262497	-4.1442555676511352	2	-1	0	0	148	1	0
-46.827608655730494	-8.2569708480625224	4	-1	0	0	49	1	0
-45.929773040045198	-12.306845594624843	2	-1	0	0	149	1	0
-44.682384118369946	-16.263057815135522	4	-1	0	0	50	1	0
-43.094935273592718	-20.095498345770231	2	-1	0	0	150	1	0
-41.179507949950064	-23.774999999999984	4	-1	0	0	51	1	0
-38.950679705941567	-27.273559548492223	2	-1	0	0	151	1	0
-36.425413270307438	-30.564550840594908	4	-1	0	0	52	1	0
-33.622927445420366	-33.622927445420295	2	-1	0	0	152	1	0
-30.564550840594951	-36.425413270307395	4	-1	0	0	53	1	0
-27.273559548492255	-38.950679705941546	2	-1	0	0	153	1	0
-23.77500000000002	-41.179507949950043	4	-1	0	0	54	1	0
-20.095498345770281	-43.094935273592689	2	-1	0	0	154	1	0
-16.263057815135539	-44.682384118369946	4	-1	0	0	55	1	0
-12.306845594624855	-45.929773040045198	2	-1	0	0	155	1	0
-8.2569708480625366	-46.827608655730486	4	-1	0	0	56	1	0
-4.1442555676511494	-47.369057894262497	2	-1	0	0	156	1	0
-5.0967677151659447e-014	-47.549999999999997	4	-1	0	0	57	1	0
4.1442555676510899	-47.369057894262504	2	-1	0	0	157	1	0
8.2569708480625188	-46.827608655730494	4	-1	0	0	58	1	0
12.306845594624839	-45.929773040045198	2	-1	0	0	158	1	0
16.263057815135522	-44.682384118369946	4	-1	0	0	59	1	0
20.095498345770228	-43.094935273592718	2	-1	0	0	159	1	0
23.774999999999963	-41.179507949950072	4	-1	0	0	60	1	0
27.273559548492205	-38.950679705941582	2	-1	0	0	160	1	0
30.564550840594908	-36.425413270307438	4	-1	0	0	61	1	0
33.622927445420295	-33.622927445420373	2	-1	0	0	161	1	0
36.425413270307395	-30.564550840594954	4	-1	0	0	62	1	0
38.950679705941546	-27.273559548492258	2	-1	0	0	162	1	0
41.179507949950043	-23.77500000000002	4	-1	0	0	63	1	0
43.094935273592689	-20.095498345770284	2	-1	0	0	163	1	0
44.682384118369946	-16.263057815135539	4	-1	0	0	64	1	0
45.929773040045198	-12.306845594624857	2	-1	0	0	164	1	0
46.827608655730486	-8.256970848062581	4	-1	0	0	65	1	0
47.36905789426249	-4.1442555676511947	2	-1	0	0	165	1	0
89.894999999999996	0	1	-1	0	0	1	1	0
61.5	0	2	-1	0	0	2	1	0
38.75	0	1	-1	0	0	4	1	0
27.449999999999999	0	3	-1	0	0	5	1	0
9.3249999999999993	0	1	-1	0	0	6	1	0
